*NODE, NSET=Nall
1, 0, 0, 0
2, 1, 0, 0
*ELEMENT, TYPE=T3D2, ELSET=Eall
1, 1, 2
*MATERIAL, NAME=STEEL
*ELASTIC
210000, 0.3
*SOLID SECTION, ELSET=Eall, MATERIAL=STEEL
1
*BOUNDARY
1, 1, 3
*STEP
*STATIC
*CLOAD
2, 1, 1000
*NODE PRINT, NSET=Nall
U
*END STEP
